Version 4
SHEET 1 1004 680
WIRE 496 -48 480 -48
WIRE 480 -16 480 -48
WIRE 480 -16 400 -16
WIRE 560 -16 480 -16
WIRE 816 32 768 32
WIRE 768 64 768 32
WIRE 400 112 400 80
WIRE 448 112 400 112
WIRE 560 112 560 80
WIRE 560 112 512 112
WIRE 400 144 400 112
WIRE 400 144 368 144
WIRE 560 144 560 112
WIRE 592 144 560 144
WIRE 400 176 400 144
WIRE 448 176 400 176
WIRE 560 176 560 144
WIRE 560 176 528 176
WIRE 400 208 400 176
WIRE 560 208 560 176
WIRE 480 304 400 304
WIRE 560 304 480 304
WIRE 480 320 480 304
FLAG 624 256 voutn
FLAG 336 256 voutp
FLAG 368 144 voutn
IOPIN 368 144 Out
FLAG 592 144 voutp
IOPIN 592 144 Out
FLAG 496 -48 vdd
IOPIN 496 -48 In
FLAG 816 32 vdd
IOPIN 816 32 In
FLAG 768 144 0
FLAG 480 400 0
FLAG 336 32 voutp
FLAG 624 32 voutn
DATAFLAG 400 112 "$-V(voutp)"
SYMBOL npn 336 208 R0
SYMATTR InstName Q1
SYMATTR Value 2N2222
SYMBOL npn 624 208 M0
SYMATTR InstName Q2
SYMATTR Value 2N2222
SYMBOL ind 544 160 R90
WINDOW 0 5 56 VBottom 2
WINDOW 3 32 56 VTop 2
SYMATTR InstName L1
SYMATTR Value {losc}
SYMATTR SpiceLine Rser=1
SYMBOL cap 512 96 R90
WINDOW 0 0 32 VBottom 2
WINDOW 3 32 32 VTop 2
SYMATTR InstName C1
SYMATTR Value {cosc}
SYMBOL voltage 768 48 R0
WINDOW 123 0 0 Left 0
WINDOW 39 0 0 Left 0
SYMATTR InstName V1
SYMATTR Value 1.5
SYMBOL pnp 336 -16 R0
SYMATTR InstName Q3
SYMBOL pnp 624 -16 M0
SYMATTR InstName Q4
SYMBOL res 464 304 R0
SYMATTR InstName R1
SYMATTR Value 500
TEXT 736 -96 Left 2 !.param losc = 200n
TEXT 736 -80 Left 2 !.param cosc=20p
TEXT 736 -112 Left 2 !.tran 0 {pfreq} {0.995*pfreq}
TEXT 736 -64 Left 2 !.param pfreq=10K*sqrt(losc * cosc)
