Version 4
SHEET 1 880 680
WIRE 560 128 528 128
WIRE 560 224 528 224
SYMBOL core 224 176 R0
SYMATTR InstName X1
SYMBOL osc -176 288 R0
SYMATTR InstName X2
SYMBOL imatch 0 176 R0
SYMATTR InstName X3
SYMBOL omatch 448 224 R0
SYMATTR InstName X4
SYMBOL omatch 448 128 R0
SYMATTR InstName X5
TEXT -256 336 Left 2 !.tran {sqrt(X2:L1 * X2*C1)}
